File C:\Users\lyoshi\Documents\GitHub\EarthquakeEngineering\Homework_3\SAP2000_staticload\frame.$2k was saved on m/d/yy at h:mm:ss
 
TABLE:  "ACTIVE DEGREES OF FREEDOM"
   UX=Yes   UY=No   UZ=Yes   RX=No   RY=Yes   RZ=No
 
TABLE:  "ANALYSIS OPTIONS"
   Solver=Advanced   SolverProc=Auto   Force32Bit=No   StiffCase=None   GeomMod=None
 
TABLE:  "AUTO COMBINATION OPTION DATA 01 - GENERAL"
   DesignType=Steel   AutoGen=Yes
 
TABLE:  "AUTO COMBINATION OPTION DATA 02 - USER DATA"
   DesignType=Steel   LSType=Strength   LCName=DEAD
   DesignType=Steel   LSType=Strength   LCName=MODAL
   DesignType=Steel   LSType=Strength   LCName=live
   DesignType=Steel   LSType=Strength   LCName=MHIST1
   DesignType=Steel   LSType=Strength   LCName=MHIST0.25
   DesignType=Steel   LSType=Strength   LCName=MHIST0.5
   DesignType=Steel   LSType=Strength   LCName=MHIST1.5
   DesignType=Steel   LSType=Strength   LCName=MHIST2
   DesignType=Steel   LSType=Deflection   LCName=DEAD
   DesignType=Steel   LSType=Deflection   LCName=MODAL
   DesignType=Steel   LSType=Deflection   LCName=live
   DesignType=Steel   LSType=Deflection   LCName=MHIST1
   DesignType=Steel   LSType=Deflection   LCName=MHIST0.25
   DesignType=Steel   LSType=Deflection   LCName=MHIST0.5
   DesignType=Steel   LSType=Deflection   LCName=MHIST1.5
   DesignType=Steel   LSType=Deflection   LCName=MHIST2
 
TABLE:  "AUTO WAVE 3 - WAVE CHARACTERISTICS - GENERAL"
   WaveChar=Default   WaveType="From Theory"   KinFactor=1   SWaterDepth=45000   WaveHeight=18000   WavePeriod=12   WaveTheory=Linear
 
TABLE:  "CASE - MODAL 1 - GENERAL"
   Case=MODAL   ModeType=Eigen   MaxNumModes=12   MinNumModes=1   EigenShift=0   EigenCutoff=0   EigenTol=1E-09   AutoShift=Yes
 
TABLE:  "CASE - MODAL HISTORY 1 - GENERAL"
   Case=MHIST1   HistoryType=Transient   OutSteps=100   StepSize=0.1   ConstDamp=0.02
   Case=MHIST0.25   HistoryType=Transient   OutSteps=100   StepSize=0.1   ConstDamp=0.02
   Case=MHIST0.5   HistoryType=Transient   OutSteps=100   StepSize=0.1   ConstDamp=0.02
   Case=MHIST1.5   HistoryType=Transient   OutSteps=100   StepSize=0.1   ConstDamp=0.02
   Case=MHIST2   HistoryType=Transient   OutSteps=100   StepSize=0.1   ConstDamp=0.02
 
TABLE:  "CASE - MODAL HISTORY 2 - LOAD ASSIGNMENTS"
   Case=MHIST1   LoadType=Accel   LoadName="Accel U1"   Function=Sin1   TransAccSF=9.8   TimeFactor=1   ArrivalTime=0   CoordSys=GLOBAL   Angle=0
   Case=MHIST0.25   LoadType=Accel   LoadName="Accel U1"   Function=Sin0.25   TransAccSF=9.8   TimeFactor=1   ArrivalTime=0   CoordSys=GLOBAL   Angle=0
   Case=MHIST0.5   LoadType=Accel   LoadName="Accel U1"   Function=Sin0.5   TransAccSF=9.8   TimeFactor=1   ArrivalTime=0   CoordSys=GLOBAL   Angle=0
   Case=MHIST1.5   LoadType=Accel   LoadName="Accel U1"   Function=Sin1.5   TransAccSF=9.8   TimeFactor=1   ArrivalTime=0   CoordSys=GLOBAL   Angle=0
   Case=MHIST2   LoadType=Accel   LoadName="Accel U1"   Function=Sin2   TransAccSF=9.8   TimeFactor=1   ArrivalTime=0   CoordSys=GLOBAL   Angle=0
 
TABLE:  "CASE - STATIC 1 - LOAD ASSIGNMENTS"
   Case=DEAD   LoadType="Load pattern"   LoadName=DEAD   LoadSF=1
   Case=live   LoadType="Load pattern"   LoadName=live   LoadSF=1
 
TABLE:  "COMBINATION DEFINITIONS"
   ComboName=COMB1   ComboType="Linear Add"   AutoDesign=No   CaseName=DEAD   ScaleFactor=1.2   SteelDesign=Strength   ConcDesign=None   AlumDesign=None   ColdDesign=None   GUID=334059dc-49a3-478a-86bb-73399a38386b
   ComboName=COMB1   CaseName=live   ScaleFactor=1.4
 
TABLE:  "CONNECTIVITY - FRAME"
   Frame=1   JointI=1   JointJ=2   IsCurved=No   GUID=3143b3c0-f05f-4348-9c63-926ab2a4c46b
   Frame=2   JointI=3   JointJ=4   IsCurved=No   GUID=68ca9868-8081-4ad9-a71d-795974fc2409
   Frame=3   JointI=2   JointJ=4   IsCurved=No   GUID=98474cd9-2dbe-4aa4-afb6-30bcd7afc077
 
TABLE:  "COORDINATE SYSTEMS"
   Name=GLOBAL   Type=Cartesian   X=0   Y=0   Z=0   AboutZ=0   AboutY=0   AboutX=0
 
TABLE:  "DATABASE DOCUMENTATION"
 
TABLE:  "DATABASE FORMAT TYPES"
   UnitsCurr=Yes   OverrideE=No
 
TABLE:  "FRAME AUTO MESH ASSIGNMENTS"
   Frame=1   AutoMesh=Yes   AtJoints=Yes   AtFrames=No   NumSegments=0   MaxLength=0   MaxDegrees=0
   Frame=2   AutoMesh=Yes   AtJoints=Yes   AtFrames=No   NumSegments=0   MaxLength=0   MaxDegrees=0
   Frame=3   AutoMesh=Yes   AtJoints=Yes   AtFrames=No   NumSegments=0   MaxLength=0   MaxDegrees=0
 
TABLE:  "FRAME DESIGN PROCEDURES"
   Frame=1   DesignProc="From Material"
   Frame=2   DesignProc="From Material"
   Frame=3   DesignProc="From Material"
 
TABLE:  "FRAME LOADS - DISTRIBUTED"
   Frame=3   LoadPat=DEAD   CoordSys=GLOBAL   Type=Force   Dir=Gravity   DistType=RelDist   RelDistA=0   RelDistB=1   AbsDistA=0   AbsDistB=6000   FOverLA=14   FOverLB=14   GUID=9ad041d7-f7c0-41a9-9613-d239dbc6a757
   Frame=3   LoadPat=live   CoordSys=GLOBAL   Type=Force   Dir=Gravity   DistType=RelDist   RelDistA=0   RelDistB=1   AbsDistA=0   AbsDistB=6000   FOverLA=10   FOverLB=10   GUID=c3a5a07f-28c3-4f98-822c-764ef451c218
 
TABLE:  "FRAME LOAD TRANSFER OPTIONS"
   Frame=1   Transfer=Yes
   Frame=2   Transfer=Yes
   Frame=3   Transfer=Yes
 
TABLE:  "FRAME OUTPUT STATION ASSIGNMENTS"
   Frame=1   StationType=MinNumSta   MinNumSta=3   AddAtElmInt=Yes   AddAtPtLoad=Yes
   Frame=2   StationType=MinNumSta   MinNumSta=3   AddAtElmInt=Yes   AddAtPtLoad=Yes
   Frame=3   StationType=MaxStaSpcg   MaxStaSpcg=500   AddAtElmInt=Yes   AddAtPtLoad=Yes
 
TABLE:  "FRAME PROPERTY MODIFIERS"
   Frame=1   AMod=1   AS2Mod=1   AS3Mod=1   JMod=1   I22Mod=1   I33Mod=1   MassMod=1   WeightMod=1
   Frame=2   AMod=1   AS2Mod=1   AS3Mod=1   JMod=1   I22Mod=1   I33Mod=1   MassMod=1   WeightMod=1
   Frame=3   AMod=1   AS2Mod=1   AS3Mod=1   JMod=1   I22Mod=1   I33Mod=1   MassMod=1   WeightMod=1
 
TABLE:  "FRAME SECTION ASSIGNMENTS"
   Frame=1   AutoSelect=N.A.   AnalSect=column   MatProp=Default
   Frame=2   AutoSelect=N.A.   AnalSect=column   MatProp=Default
   Frame=3   AutoSelect=N.A.   AnalSect=beam   MatProp=Default
 
TABLE:  "FRAME SECTION PROPERTIES 01 - GENERAL"
   SectionName=beam   Material=Q345   Shape="I/Wide Flange"   t3=300   t2=120   tf=10   tw=6   t2b=120   tfb=10   Area=4080   TorsConst=95687.84   I33=61456000   I22=2885040   I23=0   AS2=1800   AS3=2000   S33=409706.666666667   S22=48084 _
        Z33=465600   Z22=74520   R33=122.73037561272   R22=26.5916837951045   Color=Cyan   FromFile=No   AMod=1   A2Mod=0   A3Mod=0   JMod=1   I2Mod=1   I3Mod=1   MMod=1   WMod=1   Notes="Added 2016/12/1 0:01:42"
   SectionName=column   Material=Q345   Shape="I/Wide Flange"   t3=300   t2=300   tf=10   tw=6   t2b=300   tfb=10   Area=7680   TorsConst=215687.84   I33=137176000   I22=45005040   I23=0   AS2=1800   AS3=5000   S33=914506.666666667 _
        S22=300033.6   Z33=987600   Z22=452520   R33=133.646767014146   R22=76.5508409490059   Color=Magenta   FromFile=No   AMod=1   A2Mod=0   A3Mod=0   JMod=1   I2Mod=1   I3Mod=1   MMod=1   WMod=1   Notes="Added 2016/12/1 0:02:05"
 
TABLE:  "FRAME SECTION PROPERTIES 13 - TIME DEPENDENT"
   SectionName=beam   TypeSize=Auto   AutoSFSize=1
   SectionName=column   TypeSize=Auto   AutoSFSize=1
 
TABLE:  "FUNCTION - PLOT FUNCTIONS"
   PlotFunc="Input Energy"   Type=Energy   Component=Input   Mode=All
   PlotFunc=Joint2-1   Type=Joint   ObjectLabel=2   Component=RelDispU1   Mode=All
 
TABLE:  "FUNCTION - POWER SPECTRAL DENSITY - USER"
   Name=UNIFPSD   Frequency=0   Value=1
   Name=UNIFPSD   Frequency=1   Value=1
 
TABLE:  "FUNCTION - RESPONSE SPECTRUM - USER"
   Name=UNIFRS   Period=0   Accel=1   FuncDamp=0.05
   Name=UNIFRS   Period=1   Accel=1
 
TABLE:  "FUNCTION - STEADY STATE - USER"
   Name=UNIFSS   Frequency=0   Value=1
   Name=UNIFSS   Frequency=1   Value=1
 
TABLE:  "FUNCTION - TIME HISTORY - SINE"
   Name=Sin1   Period=0.31203   StepsPerCyc=20   NumCycles=5   Amplitude=1
   Name=Sin0.5   Period=0.624066   StepsPerCyc=20   NumCycles=5   Amplitude=1
   Name=Sin0.25   Period=1.248132   StepsPerCyc=20   NumCycles=5   Amplitude=1
   Name=Sin1.5   Period=0.208022   StepsPerCyc=20   NumCycles=5   Amplitude=1
   Name=Sin2   Period=0.156016   StepsPerCyc=20   NumCycles=5   Amplitude=1
 
TABLE:  "FUNCTION - TIME HISTORY - USER"
   Name=RAMPTH   Time=0   Value=0
   Name=RAMPTH   Time=1   Value=1
   Name=RAMPTH   Time=4   Value=1
   Name=UNIFTH   Time=0   Value=1
   Name=UNIFTH   Time=1   Value=1
 
TABLE:  "GRID LINES"
   CoordSys=GLOBAL   AxisDir=X   GridID=A   XRYZCoord=-3000   LineType=Primary   LineColor=Gray8Dark   Visible=Yes   BubbleLoc=End   AllVisible=Yes   BubbleSize=1500
   CoordSys=GLOBAL   AxisDir=X   GridID=B   XRYZCoord=3000   LineType=Primary   LineColor=Gray8Dark   Visible=Yes   BubbleLoc=End
   CoordSys=GLOBAL   AxisDir=Y   GridID=1   XRYZCoord=0   LineType=Primary   LineColor=Gray8Dark   Visible=Yes   BubbleLoc=Start
   CoordSys=GLOBAL   AxisDir=Z   GridID=Z1   XRYZCoord=0   LineType=Primary   LineColor=Gray8Dark   Visible=Yes   BubbleLoc=End
   CoordSys=GLOBAL   AxisDir=Z   GridID=Z2   XRYZCoord=3600   LineType=Primary   LineColor=Gray8Dark   Visible=Yes   BubbleLoc=End
 
TABLE:  "GROUPS 1 - DEFINITIONS"
   GroupName=ALL   Selection=Yes   SectionCut=Yes   Steel=Yes   Concrete=Yes   Aluminum=Yes   ColdFormed=Yes   Stage=Yes   Bridge=Yes   AutoSeismic=No   AutoWind=No   SelDesSteel=No   SelDesAlum=No   SelDesCold=No   MassWeight=Yes   Color=Red
 
TABLE:  "JOINT COORDINATES"
   Joint=1   CoordSys=GLOBAL   CoordType=Cartesian   XorR=-3000   Y=0   Z=0   SpecialJt=No   GUID=f5668dac-41c6-419c-8380-90539e23bca1
   Joint=2   CoordSys=GLOBAL   CoordType=Cartesian   XorR=-3000   Y=0   Z=3600   SpecialJt=No   GUID=f5668dac-41c6-419c-8380-90539e23bca1
   Joint=3   CoordSys=GLOBAL   CoordType=Cartesian   XorR=3000   Y=0   Z=0   SpecialJt=No   GUID=f5668dac-41c6-419c-8380-90539e23bca1
   Joint=4   CoordSys=GLOBAL   CoordType=Cartesian   XorR=3000   Y=0   Z=3600   SpecialJt=No   GUID=f5668dac-41c6-419c-8380-90539e23bca1
 
TABLE:  "JOINT PATTERN DEFINITIONS"
   Pattern=Default
 
TABLE:  "JOINT RESTRAINT ASSIGNMENTS"
   Joint=1   U1=Yes   U2=Yes   U3=Yes   R1=Yes   R2=Yes   R3=Yes
   Joint=3   U1=Yes   U2=Yes   U3=Yes   R1=Yes   R2=Yes   R3=Yes
 
TABLE:  "LOAD CASE DEFINITIONS"
   Case=DEAD   Type=LinStatic   InitialCond=Zero   DesTypeOpt="Prog Det"   DesignType=Dead   DesActOpt="Prog Det"   DesignAct=Non-Composite   AutoType=None   RunCase=Yes
   Case=MODAL   Type=LinModal   InitialCond=Zero   DesTypeOpt="Prog Det"   DesignType=Other   DesActOpt="Prog Det"   DesignAct=Other   AutoType=None   RunCase=Yes
   Case=live   Type=LinStatic   InitialCond=Zero   DesTypeOpt="Prog Det"   DesignType=Live   DesActOpt="Prog Det"   DesignAct="Short-Term Composite"   AutoType=None   RunCase=Yes
   Case=MHIST1   Type=LinModHist   InitialCond=Zero   ModalCase=MODAL   DesTypeOpt="Prog Det"   DesignType=Quake   DesActOpt="Prog Det"   DesignAct="Short-Term Composite"   AutoType=None   RunCase=Yes
   Case=MHIST0.25   Type=LinModHist   InitialCond=Zero   ModalCase=MODAL   DesTypeOpt="Prog Det"   DesignType=Quake   DesActOpt="Prog Det"   DesignAct="Short-Term Composite"   AutoType=None   RunCase=Yes
   Case=MHIST0.5   Type=LinModHist   InitialCond=Zero   ModalCase=MODAL   DesTypeOpt="Prog Det"   DesignType=Quake   DesActOpt="Prog Det"   DesignAct="Short-Term Composite"   AutoType=None   RunCase=Yes
   Case=MHIST1.5   Type=LinModHist   InitialCond=Zero   ModalCase=MODAL   DesTypeOpt="Prog Det"   DesignType=Quake   DesActOpt="Prog Det"   DesignAct="Short-Term Composite"   AutoType=None   RunCase=Yes
   Case=MHIST2   Type=LinModHist   InitialCond=Zero   ModalCase=MODAL   DesTypeOpt="Prog Det"   DesignType=Quake   DesActOpt="Prog Det"   DesignAct="Short-Term Composite"   AutoType=None   RunCase=Yes
 
TABLE:  "LOAD PATTERN DEFINITIONS"
   LoadPat=DEAD   DesignType=Dead   SelfWtMult=1   GUID=a8fbc8ea-8775-4a12-9889-c610bd6dfc60
   LoadPat=live   DesignType=Live   SelfWtMult=0   GUID=8fdaaf78-b073-4735-8398-74768837dc14
 
TABLE:  "MASS SOURCE"
   MassSource=MSSSRC1   Elements=No   Masses=No   Loads=Yes   IsDefault=Yes   LoadPat=DEAD   Multiplier=1
   MassSource=MSSSRC1   LoadPat=live   Multiplier=0.5
 
TABLE:  "MATERIAL PROPERTIES 01 - GENERAL"
   Material=C30   Type=Concrete   SymType=Isotropic   TempDepend=No   Color=Red   Notes="GB GB50010 C30 2016/12/1 0:00:48"
   Material=Q345   Type=Steel   SymType=Isotropic   TempDepend=No   Color=Cyan   Notes="GB Q345 2016/12/1 0:00:48"
 
TABLE:  "MATERIAL PROPERTIES 02 - BASIC MECHANICAL PROPERTIES"
   Material=C30   UnitWeight=2.5E-05   UnitMass=2.55E-09   E1=30000   G12=12500   U12=0.2   A1=1E-05
   Material=Q345   UnitWeight=7.7E-05   UnitMass=7.85E-09   E1=200000   G12=76923.0769230769   U12=0.3   A1=1.17E-05
 
TABLE:  "MATERIAL PROPERTIES 03A - STEEL DATA"
   Material=Q345   Fy=345   Fu=510   EffFy=380   EffFu=560   SSCurveOpt=Simple   SSHysType=Kinematic   SHard=0.015   SMax=0.11   SRup=0.17   FinalSlope=-0.1
 
TABLE:  "MATERIAL PROPERTIES 03B - CONCRETE DATA"
   Material=C30   Fc=20.1   eFc=20.1   LtWtConc=No   SSCurveOpt=Mander   SSHysType=Takeda   SFc=0.002   SCap=0.005   FinalSlope=-0.1   FAngle=0   DAngle=0
 
TABLE:  "MATERIAL PROPERTIES 06 - DAMPING PARAMETERS"
   Material=C30   ModalRatio=0   VisMass=0   VisStiff=0   HysMass=0   HysStiff=0
   Material=Q345   ModalRatio=0   VisMass=0   VisStiff=0   HysMass=0   HysStiff=0
 
TABLE:  "OPTIONS - COLORS - DISPLAY"
   DeviceType=Screen   Points=Blue   LinesFrame=Blue   LinesFrmDL=Blue   LinesCable=Green   LinesTendon=Green   SpringLinks=Green   Restraints=Green   Releases=Green   Axes=Cyan   Text=Black   ShadowLines=Gray8Dark   GuideLines=Gray8Dark _
        Highlight=Red   Selection=10504778   AreaFillBot=Red   AreaFillTop=16744703   AreaFillSd=Red   AreaEdge=DarkRed   SolidF1=Red   SolidF2=Blue   SolidF3=Green   SolidF4=Yellow   SolidF5=White   SolidF6=Cyan   SolidEdge=DarkRed _
        Floor=Gray4   Background=White   BGLowLeft=White   BGLowRight=White   BGUpRight=White   Darkness=0.5
   DeviceType=Printer   Points=Gray8Dark   LinesFrame=Black   LinesFrmDL=Gray4   LinesCable=Black   LinesTendon=Black   SpringLinks=Gray8Dark   Restraints=Gray8Dark   Releases=Gray4   Axes=Black   Text=Black   ShadowLines=Gray4 _
        GuideLines=Gray4   Highlight=Black   Selection=Black   AreaFillBot=Gray4   AreaFillTop=Gray8Dark   AreaFillSd=Gray4   AreaEdge=Black   SolidF1=Gray1Light   SolidF2=Gray2   SolidF3=Gray3   SolidF4=Gray4   SolidF5=Gray5 _
        SolidF6=Gray6   SolidEdge=Black   Floor=Gray4   Background=White   BGLowLeft=White   BGLowRight=White   BGUpRight=White   Darkness=0.5
   DeviceType="Color Printer"   Points=Blue   LinesFrame=Blue   LinesFrmDL=Blue   LinesCable=Green   LinesTendon=Green   SpringLinks=Green   Restraints=Green   Releases=Green   Axes=Cyan   Text=Black   ShadowLines=Gray8Dark _
        GuideLines=Gray8Dark   Highlight=Red   Selection=10504778   AreaFillBot=Red   AreaFillTop=16744703   AreaFillSd=Red   AreaEdge=DarkRed   SolidF1=Red   SolidF2=Blue   SolidF3=Green   SolidF4=Yellow   SolidF5=White   SolidF6=Cyan _
        SolidEdge=DarkRed   Floor=Gray4   Background=White   BGLowLeft=White   BGLowRight=White   BGUpRight=White   Darkness=0.5
 
TABLE:  "OPTIONS - COLORS - OUTPUT"
   DeviceType=Screen   Contour1=13107400   Contour2=6553828   Contour3=Red   Contour4=16639   Contour5=Orange   Contour6=43775   Contour7=54527   Contour8=Yellow   Contour9=65408   Contour10=Green   Contour11=8453888   Contour12=Cyan _
        Contour13=16755200   Contour14=16733440   Contour15=Blue   Transpare=0.5   Ratio1=Cyan   Ratio2=Green   Ratio3=Yellow   Ratio4=Orange   Ratio5=Red   RatioNotD=Gray4   RatioNotC=Red   RatioVal1=0.5   RatioVal2=0.7   RatioVal3=0.9 _
        RatioVal4=1   DFillPos=Blue   DFillNeg=Red   DFillRPos=Green   DFillRNeg=Green
   DeviceType=Printer   Contour1=Black   Contour2=3158064   Contour3=4210752   Contour4=5263440   Contour5=6316128   Contour6=7368816   Contour7=Gray8Dark   Contour8=Gray7   Contour9=Gray6   Contour10=Gray5   Contour11=Gray4 _
        Contour12=Gray3   Contour13=Gray2   Contour14=Gray1Light   Contour15=White   Transpare=0   Ratio1=Gray2   Ratio2=Gray4   Ratio3=Gray8Dark   Ratio4=4210752   Ratio5=Black   RatioNotD=Gray4   RatioNotC=Black   RatioVal1=0.5 _
        RatioVal2=0.7   RatioVal3=0.9   RatioVal4=1   DFillPos=Gray8Dark   DFillNeg=Gray8Dark   DFillRPos=4210752   DFillRNeg=4210752
   DeviceType="Color Printer"   Contour1=13107400   Contour2=6553828   Contour3=Red   Contour4=16639   Contour5=Orange   Contour6=43775   Contour7=54527   Contour8=Yellow   Contour9=65408   Contour10=Green   Contour11=8453888 _
        Contour12=Cyan   Contour13=16755200   Contour14=16733440   Contour15=Blue   Transpare=0   Ratio1=Cyan   Ratio2=Green   Ratio3=Yellow   Ratio4=Orange   Ratio5=Red   RatioNotD=Gray4   RatioNotC=Red   RatioVal1=0.5   RatioVal2=0.7 _
        RatioVal3=0.9   RatioVal4=1   DFillPos=Blue   DFillNeg=Red   DFillRPos=Green   DFillRNeg=Green
 
TABLE:  "OVERWRITES - STEEL DESIGN - AISC 360-10"
   Frame=1   DesignSect="Program Determined"   FrameType="Program Determined"   Fy=0   RLLF=0   AreaRatio=0   XLMajor=0   XLMinor=0   XLLTB=0   K1Major=0   K1Minor=0   K2Major=0   K2Minor=0   KLTB=0   CmMajor=0   CmMinor=0   Cb=0 _
        B1Major=0   B1Minor=0   B2Major=0   B2Minor=0   HSSReduceT="Program Determined"   HSSWelding="Program Determined"   Omega0=0   Ry=0   Pnc=0   Pnt=0   Mn3=0   Mn2=0   Vn2=0   Vn3=0   CheckDefl="Program Determined" _
        DeflType="Program Determined"   DLRat=0   SDLAndLLRat=0   LLRat=0   TotalRat=0   NetRat=0   DLAbs=0   SDLAndLLAbs=0   LLAbs=0   TotalAbs=0   NetAbs=0   SpecCamber=0   DCLimit=0
   Frame=2   DesignSect="Program Determined"   FrameType="Program Determined"   Fy=0   RLLF=0   AreaRatio=0   XLMajor=0   XLMinor=0   XLLTB=0   K1Major=0   K1Minor=0   K2Major=0   K2Minor=0   KLTB=0   CmMajor=0   CmMinor=0   Cb=0 _
        B1Major=0   B1Minor=0   B2Major=0   B2Minor=0   HSSReduceT="Program Determined"   HSSWelding="Program Determined"   Omega0=0   Ry=0   Pnc=0   Pnt=0   Mn3=0   Mn2=0   Vn2=0   Vn3=0   CheckDefl="Program Determined" _
        DeflType="Program Determined"   DLRat=0   SDLAndLLRat=0   LLRat=0   TotalRat=0   NetRat=0   DLAbs=0   SDLAndLLAbs=0   LLAbs=0   TotalAbs=0   NetAbs=0   SpecCamber=0   DCLimit=0
   Frame=3   DesignSect="Program Determined"   FrameType="Program Determined"   Fy=0   RLLF=0   AreaRatio=0   XLMajor=0   XLMinor=0   XLLTB=0   K1Major=0   K1Minor=0   K2Major=0   K2Minor=0   KLTB=0   CmMajor=0   CmMinor=0   Cb=0 _
        B1Major=0   B1Minor=0   B2Major=0   B2Minor=0   HSSReduceT="Program Determined"   HSSWelding="Program Determined"   Omega0=0   Ry=0   Pnc=0   Pnt=0   Mn3=0   Mn2=0   Vn2=0   Vn3=0   CheckDefl="Program Determined" _
        DeflType="Program Determined"   DLRat=0   SDLAndLLRat=0   LLRat=0   TotalRat=0   NetRat=0   DLAbs=0   SDLAndLLAbs=0   LLAbs=0   TotalAbs=0   NetAbs=0   SpecCamber=0   DCLimit=0
 
TABLE:  "PREFERENCES - ALUMINUM DESIGN - AA-ASD 2000"
   THDesign=Envelopes   FrameType="Moment Frame"   SRatioLimit=1   MaxIter=1   LatFact=1.33333333333333   UseLatFact=No   Bridge=No
 
TABLE:  "PREFERENCES - COLD FORMED DESIGN - AISI-ASD96"
   THDesign=Envelopes   FrameType="Braced Frame"   SRatioLimit=1   MaxIter=1   OmegaBS=1.67   OmegaBUS=1.67   OmegaBLTB=1.67   OmegaVS=1.67   OmegaVNS=1.5   OmegaT=1.67   OmegaC=1.8
 
TABLE:  "PREFERENCES - CONCRETE DESIGN - ACI 318-14"
   THDesign=Envelopes   NumCurves=24   NumPoints=11   MinEccen=Yes   PatLLF=0.75   UFLimit=0.95   SeisCat=D   Rho=1   Sds=0.5   PhiT=0.9   PhiCTied=0.65   PhiCSpiral=0.75   PhiV=0.75   PhiVSeismic=0.6   PhiVJoint=0.85
 
TABLE:  "PREFERENCES - DIMENSIONAL"
   MergeTol=1   FineGrid=250   Nudge=250   SelectTol=3   SnapTol=12   SLineThick=2   PLineThick=4   MaxFont=8   MinFont=3   AutoZoom=10   ShrinkFact=70   TextFileLen=240
 
TABLE:  "PREFERENCES - STEEL DESIGN - AISC 360-10"
   THDesign=Envelopes   FrameType=SMF   PatLLF=0.75   SRatioLimit=0.95   MaxIter=1   SDC=D   SeisCode=Yes   SeisLoad=Yes   ImpFactor=1   SystemRho=1   SystemSds=0.5   SystemR=8   SystemCd=5.5   Omega0=3   Provision=LRFD _
        AMethod="Direct Analysis"   SOMethod="General 2nd Order"   SRMethod="Tau-b Fixed"   NLCoeff=0.002   PhiB=0.9   PhiC=0.9   PhiTY=0.9   PhiTF=0.75   PhiV=0.9   PhiVRolledI=1   PhiVT=0.9   PlugWeld=Yes   HSSWelding=ERW   HSSReduceT=No _
        CheckDefl=No   DLRat=120   SDLAndLLRat=120   LLRat=360   TotalRat=240   NetRat=240
 
TABLE:  "PROGRAM CONTROL"
   ProgramName=SAP2000   Version=18.2.0   CurrUnits="N, mm, C"   SteelCode="AISC 360-10"   ConcCode="ACI 318-14"   AlumCode="AA-ASD 2000"   ColdCode=AISI-ASD96   RegenHinge=Yes
 
TABLE:  "PROJECT INFORMATION"
   Item="Company Name"
   Item="Client Name"
   Item="Project Name"
   Item="Project Number"
   Item="Model Name"
   Item="Model Description"
   Item="Revision Number"
   Item="Frame Type"
   Item=Engineer
   Item=Checker
   Item=Supervisor
   Item="Issue Code"
   Item="Design Code"
 
TABLE:  "REBAR SIZES"
   RebarID=#2   Area=32.258   Diameter=6.35
   RebarID=#3   Area=70.9675996154547   Diameter=9.525
   RebarID=#4   Area=129.032001922727   Diameter=12.7
   RebarID=#5   Area=199.999601538181   Diameter=15.875
   RebarID=#6   Area=283.870398461819   Diameter=19.05
   RebarID=#7   Area=387.096015381813   Diameter=22.225
   RebarID=#8   Area=509.676413843632   Diameter=25.4
   RebarID=#9   Area=645.16   Diameter=28.6512005329132
   RebarID=#10   Area=819.35318769455   Diameter=32.2579995155334
   RebarID=#11   Area=1006.44956308365   Diameter=35.8139991521835
   RebarID=#14   Area=1451.61   Diameter=43.0021989583969
   RebarID=#18   Area=2580.64   Diameter=57.3277992248535
   RebarID=10M   Area=100.000002655387   Diameter=11.300000667572
   RebarID=15M   Area=200.000005310774   Diameter=15.9999999403954
   RebarID=20M   Area=300.000017579794   Diameter=19.4999997854233
   RebarID=25M   Area=500.000022890568   Diameter=25.2000016093254
   RebarID=30M   Area=700.000008974075   Diameter=29.9000008821487
   RebarID=35M   Area=1000.00004578114   Diameter=35.7000011444092
   RebarID=45M   Area=1500.00010712624   Diameter=43.7000003576279
   RebarID=55M   Area=2500.00007599831   Diameter=56.4000033855438
   RebarID=6d   Area=28.3000004149973   Diameter=6.00000016689301
   RebarID=8d   Area=50.2999995571375   Diameter=7.99999997019768
   RebarID=10d   Area=78.5000013634562   Diameter=9.99999977350235
   RebarID=12d   Area=113.000009249449   Diameter=12.000000333786
   RebarID=14d   Area=154.000010818839   Diameter=14.0000008940697
   RebarID=16d   Area=201.000015431643   Diameter=15.9999999403954
   RebarID=20d   Area=314.000005453825   Diameter=19.9999995470047
   RebarID=25d   Area=491.000008711815   Diameter=25.0000001907349
   RebarID=26d   Area=531.000029001236   Diameter=25.9999997138977
   RebarID=28d   Area=616.000043275356   Diameter=28.0000017881393
   RebarID=N12   Area=113.000009249449   Diameter=12.000000333786
   RebarID=N16   Area=201.000015431643   Diameter=15.9999999403954
   RebarID=N20   Area=314.000005453825   Diameter=19.9999995470047
   RebarID=N24   Area=452.000036997795   Diameter=24.000000667572
   RebarID=N28   Area=616.000043275356   Diameter=28.0000017881393
   RebarID=N32   Area=804.00006172657   Diameter=31.9999998807907
   RebarID=N36   Area=1020.00001747131   Diameter=36.000001001358
 
END TABLE DATA
